<?xml version="1.0" encoding="UTF-8" standalone="yes"?>
<template encoding-version="1.2">
    <description></description>
    <groupId>a38d82ec-0163-1000-a15b-a51cf15b25ab</groupId>
    <name>Atlas_Flow</name>
    <snippet>
        <connections>
            <id>c7e2a104-6bd6-3458-0000-000000000000</id>
            <parentGroupId>f6866b98-934e-3e5a-0000-000000000000</parentGroupId>
            <backPressureDataSizeThreshold>1 GB</backPressureDataSizeThreshold>
            <backPressureObjectThreshold>10000</backPressureObjectThreshold>
            <destination>
                <groupId>f6866b98-934e-3e5a-0000-000000000000</groupId>
                <id>05643aaf-c976-3425-0000-000000000000</id>
                <type>PROCESSOR</type>
            </destination>
            <flowFileExpiration>0 sec</flowFileExpiration>
            <labelIndex>1</labelIndex>
            <name></name>
            <selectedRelationships>success</selectedRelationships>
            <source>
                <groupId>f6866b98-934e-3e5a-0000-000000000000</groupId>
                <id>4c251ee7-918c-32d4-0000-000000000000</id>
                <type>PROCESSOR</type>
            </source>
            <zIndex>0</zIndex>
        </connections>
        <connections>
            <id>e81e3837-4ea9-3130-0000-000000000000</id>
            <parentGroupId>f6866b98-934e-3e5a-0000-000000000000</parentGroupId>
            <backPressureDataSizeThreshold>1 GB</backPressureDataSizeThreshold>
            <backPressureObjectThreshold>10000</backPressureObjectThreshold>
            <destination>
                <groupId>f6866b98-934e-3e5a-0000-000000000000</groupId>
                <id>2956134c-dacb-3a3c-0000-000000000000</id>
                <type>PROCESSOR</type>
            </destination>
            <flowFileExpiration>0 sec</flowFileExpiration>
            <labelIndex>1</labelIndex>
            <name></name>
            <selectedRelationships>success</selectedRelationships>
            <source>
                <groupId>f6866b98-934e-3e5a-0000-000000000000</groupId>
                <id>4c251ee7-918c-32d4-0000-000000000000</id>
                <type>PROCESSOR</type>
            </source>
            <zIndex>0</zIndex>
        </connections>
        <connections>
            <id>e8a43a60-73f7-333e-0000-000000000000</id>
            <parentGroupId>f6866b98-934e-3e5a-0000-000000000000</parentGroupId>
            <backPressureDataSizeThreshold>1 GB</backPressureDataSizeThreshold>
            <backPressureObjectThreshold>10000</backPressureObjectThreshold>
            <destination>
                <groupId>f6866b98-934e-3e5a-0000-000000000000</groupId>
                <id>4c251ee7-918c-32d4-0000-000000000000</id>
                <type>PROCESSOR</type>
            </destination>
            <flowFileExpiration>0 sec</flowFileExpiration>
            <labelIndex>1</labelIndex>
            <name></name>
            <prioritizers>org.apache.nifi.prioritizer.FirstInFirstOutPrioritizer</prioritizers>
            <selectedRelationships>success</selectedRelationships>
            <source>
                <groupId>f6866b98-934e-3e5a-0000-000000000000</groupId>
                <id>afc65e42-c568-30a3-0000-000000000000</id>
                <type>PROCESSOR</type>
            </source>
            <zIndex>0</zIndex>
        </connections>
        <connections>
            <id>f9d4f28e-d44a-3df3-0000-000000000000</id>
            <parentGroupId>f6866b98-934e-3e5a-0000-000000000000</parentGroupId>
            <backPressureDataSizeThreshold>1 GB</backPressureDataSizeThreshold>
            <backPressureObjectThreshold>10000</backPressureObjectThreshold>
            <bends>
                <x>1188.3216583601024</x>
                <y>378.8049443860058</y>
            </bends>
            <bends>
                <x>1188.3216583601024</x>
                <y>428.8049443860058</y>
            </bends>
            <destination>
                <groupId>f6866b98-934e-3e5a-0000-000000000000</groupId>
                <id>4c251ee7-918c-32d4-0000-000000000000</id>
                <type>PROCESSOR</type>
            </destination>
            <flowFileExpiration>0 sec</flowFileExpiration>
            <labelIndex>1</labelIndex>
            <name></name>
            <selectedRelationships>failure</selectedRelationships>
            <selectedRelationships>not.found</selectedRelationships>
            <selectedRelationships>permission.denied</selectedRelationships>
            <source>
                <groupId>f6866b98-934e-3e5a-0000-000000000000</groupId>
                <id>4c251ee7-918c-32d4-0000-000000000000</id>
                <type>PROCESSOR</type>
            </source>
            <zIndex>0</zIndex>
        </connections>
        <connections>
            <id>35f30d54-6222-350a-0000-000000000000</id>
            <parentGroupId>f6866b98-934e-3e5a-0000-000000000000</parentGroupId>
            <backPressureDataSizeThreshold>1 GB</backPressureDataSizeThreshold>
            <backPressureObjectThreshold>10000</backPressureObjectThreshold>
            <bends>
                <x>1950.3748037028654</x>
                <y>386.16272400696346</y>
            </bends>
            <bends>
                <x>1950.3748037028654</x>
                <y>436.16272400696346</y>
            </bends>
            <destination>
                <groupId>f6866b98-934e-3e5a-0000-000000000000</groupId>
                <id>05643aaf-c976-3425-0000-000000000000</id>
                <type>PROCESSOR</type>
            </destination>
            <flowFileExpiration>0 sec</flowFileExpiration>
            <labelIndex>1</labelIndex>
            <name></name>
            <selectedRelationships>failure</selectedRelationships>
            <source>
                <groupId>f6866b98-934e-3e5a-0000-000000000000</groupId>
                <id>05643aaf-c976-3425-0000-000000000000</id>
                <type>PROCESSOR</type>
            </source>
            <zIndex>0</zIndex>
        </connections>
        <connections>
            <id>68bbabbc-37fd-37dc-0000-000000000000</id>
            <parentGroupId>f6866b98-934e-3e5a-0000-000000000000</parentGroupId>
            <backPressureDataSizeThreshold>1 GB</backPressureDataSizeThreshold>
            <backPressureObjectThreshold>10000</backPressureObjectThreshold>
            <destination>
                <groupId>f6866b98-934e-3e5a-0000-000000000000</groupId>
                <id>4c251ee7-918c-32d4-0000-000000000000</id>
                <type>PROCESSOR</type>
            </destination>
            <flowFileExpiration>0 sec</flowFileExpiration>
            <labelIndex>1</labelIndex>
            <name></name>
            <selectedRelationships>success</selectedRelationships>
            <source>
                <groupId>f6866b98-934e-3e5a-0000-000000000000</groupId>
                <id>6ce612ec-33c9-30be-0000-000000000000</id>
                <type>PROCESSOR</type>
            </source>
            <zIndex>0</zIndex>
        </connections>
        <labels>
            <id>808df646-db21-315c-0000-000000000000</id>
            <parentGroupId>f6866b98-934e-3e5a-0000-000000000000</parentGroupId>
            <position>
                <x>1440.1234130859375</x>
                <y>298.7399711608887</y>
            </position>
            <height>223.9658203125</height>
            <label>Ingest Data into DataLake (HDFS)</label>
            <style>
                <entry>
                    <key>font-size</key>
                    <value>12px</value>
                </entry>
            </style>
            <width>616.9584350585938</width>
        </labels>
        <labels>
            <id>df551405-e963-37f5-0000-000000000000</id>
            <parentGroupId>f6866b98-934e-3e5a-0000-000000000000</parentGroupId>
            <position>
                <x>700.3710327148438</x>
                <y>0.0</y>
            </position>
            <height>179.0411376953125</height>
            <label>Dynamically tagging form streaming data.</label>
            <style>
                <entry>
                    <key>font-size</key>
                    <value>12px</value>
                </entry>
            </style>
            <width>406.13153076171875</width>
        </labels>
        <labels>
            <id>ec4c53ba-420e-392d-0000-000000000000</id>
            <parentGroupId>f6866b98-934e-3e5a-0000-000000000000</parentGroupId>
            <position>
                <x>0.0</x>
                <y>137.46273481845856</y>
            </position>
            <height>549.6549682617188</height>
            <label>Fetch data From SharePoint DataSource</label>
            <style>
                <entry>
                    <key>font-size</key>
                    <value>12px</value>
                </entry>
            </style>
            <width>409.8606262207031</width>
        </labels>
        <processors>
            <id>afc65e42-c568-30a3-0000-000000000000</id>
            <parentGroupId>f6866b98-934e-3e5a-0000-000000000000</parentGroupId>
            <position>
                <x>27.410248288908406</x>
                <y>493.42143677551815</y>
            </position>
            <bundle>
                <artifact>nifi-standard-nar</artifact>
                <group>org.apache.nifi</group>
                <version>1.5.0.3.1.1.0-35</version>
            </bundle>
            <config>
                <bulletinLevel>WARN</bulletinLevel>
                <comments></comments>
                <concurrentlySchedulableTaskCount>1</concurrentlySchedulableTaskCount>
                <descriptors>
                    <entry>
                        <key>Input Directory</key>
                        <value>
                            <name>Input Directory</name>
                        </value>
                    </entry>
                    <entry>
                        <key>Recurse Subdirectories</key>
                        <value>
                            <name>Recurse Subdirectories</name>
                        </value>
                    </entry>
                    <entry>
                        <key>Input Directory Location</key>
                        <value>
                            <name>Input Directory Location</name>
                        </value>
                    </entry>
                    <entry>
                        <key>File Filter</key>
                        <value>
                            <name>File Filter</name>
                        </value>
                    </entry>
                    <entry>
                        <key>Path Filter</key>
                        <value>
                            <name>Path Filter</name>
                        </value>
                    </entry>
                    <entry>
                        <key>Minimum File Age</key>
                        <value>
                            <name>Minimum File Age</name>
                        </value>
                    </entry>
                    <entry>
                        <key>Maximum File Age</key>
                        <value>
                            <name>Maximum File Age</name>
                        </value>
                    </entry>
                    <entry>
                        <key>Minimum File Size</key>
                        <value>
                            <name>Minimum File Size</name>
                        </value>
                    </entry>
                    <entry>
                        <key>Maximum File Size</key>
                        <value>
                            <name>Maximum File Size</name>
                        </value>
                    </entry>
                    <entry>
                        <key>Ignore Hidden Files</key>
                        <value>
                            <name>Ignore Hidden Files</name>
                        </value>
                    </entry>
                    <entry>
                        <key>target-system-timestamp-precision</key>
                        <value>
                            <name>target-system-timestamp-precision</name>
                        </value>
                    </entry>
                </descriptors>
                <executionNode>ALL</executionNode>
                <lossTolerant>false</lossTolerant>
                <penaltyDuration>30 sec</penaltyDuration>
                <properties>
                    <entry>
                        <key>Input Directory</key>
                        <value>/tmp/sharepoint_2</value>
                    </entry>
                    <entry>
                        <key>Recurse Subdirectories</key>
                        <value>true</value>
                    </entry>
                    <entry>
                        <key>Input Directory Location</key>
                        <value>Local</value>
                    </entry>
                    <entry>
                        <key>File Filter</key>
                        <value>[^\.].*</value>
                    </entry>
                    <entry>
                        <key>Path Filter</key>
                    </entry>
                    <entry>
                        <key>Minimum File Age</key>
                        <value>0 sec</value>
                    </entry>
                    <entry>
                        <key>Maximum File Age</key>
                    </entry>
                    <entry>
                        <key>Minimum File Size</key>
                        <value>0 B</value>
                    </entry>
                    <entry>
                        <key>Maximum File Size</key>
                    </entry>
                    <entry>
                        <key>Ignore Hidden Files</key>
                        <value>true</value>
                    </entry>
                    <entry>
                        <key>target-system-timestamp-precision</key>
                        <value>auto-detect</value>
                    </entry>
                </properties>
                <runDurationMillis>0</runDurationMillis>
                <schedulingPeriod>0 sec</schedulingPeriod>
                <schedulingStrategy>TIMER_DRIVEN</schedulingStrategy>
                <yieldDuration>1 sec</yieldDuration>
            </config>
            <name>GetOrgData</name>
            <relationships>
                <autoTerminate>false</autoTerminate>
                <name>success</name>
            </relationships>
            <state>STOPPED</state>
            <style/>
            <type>org.apache.nifi.processors.standard.ListFile</type>
        </processors>
        <processors>
            <id>05643aaf-c976-3425-0000-000000000000</id>
            <parentGroupId>f6866b98-934e-3e5a-0000-000000000000</parentGroupId>
            <position>
                <x>1495.3748037028654</x>
                <y>346.16272400696346</y>
            </position>
            <bundle>
                <artifact>nifi-hadoop-nar</artifact>
                <group>org.apache.nifi</group>
                <version>1.5.0.3.1.1.0-35</version>
            </bundle>
            <config>
                <bulletinLevel>WARN</bulletinLevel>
                <comments></comments>
                <concurrentlySchedulableTaskCount>1</concurrentlySchedulableTaskCount>
                <descriptors>
                    <entry>
                        <key>Hadoop Configuration Resources</key>
                        <value>
                            <name>Hadoop Configuration Resources</name>
                        </value>
                    </entry>
                    <entry>
                        <key>Kerberos Principal</key>
                        <value>
                            <name>Kerberos Principal</name>
                        </value>
                    </entry>
                    <entry>
                        <key>Kerberos Keytab</key>
                        <value>
                            <name>Kerberos Keytab</name>
                        </value>
                    </entry>
                    <entry>
                        <key>Kerberos Relogin Period</key>
                        <value>
                            <name>Kerberos Relogin Period</name>
                        </value>
                    </entry>
                    <entry>
                        <key>Additional Classpath Resources</key>
                        <value>
                            <name>Additional Classpath Resources</name>
                        </value>
                    </entry>
                    <entry>
                        <key>Directory</key>
                        <value>
                            <name>Directory</name>
                        </value>
                    </entry>
                    <entry>
                        <key>Conflict Resolution Strategy</key>
                        <value>
                            <name>Conflict Resolution Strategy</name>
                        </value>
                    </entry>
                    <entry>
                        <key>Block Size</key>
                        <value>
                            <name>Block Size</name>
                        </value>
                    </entry>
                    <entry>
                        <key>IO Buffer Size</key>
                        <value>
                            <name>IO Buffer Size</name>
                        </value>
                    </entry>
                    <entry>
                        <key>Replication</key>
                        <value>
                            <name>Replication</name>
                        </value>
                    </entry>
                    <entry>
                        <key>Permissions umask</key>
                        <value>
                            <name>Permissions umask</name>
                        </value>
                    </entry>
                    <entry>
                        <key>Remote Owner</key>
                        <value>
                            <name>Remote Owner</name>
                        </value>
                    </entry>
                    <entry>
                        <key>Remote Group</key>
                        <value>
                            <name>Remote Group</name>
                        </value>
                    </entry>
                    <entry>
                        <key>Compression codec</key>
                        <value>
                            <name>Compression codec</name>
                        </value>
                    </entry>
                </descriptors>
                <executionNode>ALL</executionNode>
                <lossTolerant>false</lossTolerant>
                <penaltyDuration>30 sec</penaltyDuration>
                <properties>
                    <entry>
                        <key>Hadoop Configuration Resources</key>
                        <value>/etc/hadoop/conf/hdfs-site.xml,/etc/hadoop/conf/core-site.xml</value>
                    </entry>
                    <entry>
                        <key>Kerberos Principal</key>
                    </entry>
                    <entry>
                        <key>Kerberos Keytab</key>
                    </entry>
                    <entry>
                        <key>Kerberos Relogin Period</key>
                        <value>4 hours</value>
                    </entry>
                    <entry>
                        <key>Additional Classpath Resources</key>
                    </entry>
                    <entry>
                        <key>Directory</key>
                        <value>/tmp/samples</value>
                    </entry>
                    <entry>
                        <key>Conflict Resolution Strategy</key>
                        <value>replace</value>
                    </entry>
                    <entry>
                        <key>Block Size</key>
                    </entry>
                    <entry>
                        <key>IO Buffer Size</key>
                    </entry>
                    <entry>
                        <key>Replication</key>
                    </entry>
                    <entry>
                        <key>Permissions umask</key>
                    </entry>
                    <entry>
                        <key>Remote Owner</key>
                    </entry>
                    <entry>
                        <key>Remote Group</key>
                    </entry>
                    <entry>
                        <key>Compression codec</key>
                        <value>NONE</value>
                    </entry>
                </properties>
                <runDurationMillis>0</runDurationMillis>
                <schedulingPeriod>0 sec</schedulingPeriod>
                <schedulingStrategy>TIMER_DRIVEN</schedulingStrategy>
                <yieldDuration>1 sec</yieldDuration>
            </config>
            <name>PutHDFS</name>
            <relationships>
                <autoTerminate>false</autoTerminate>
                <name>failure</name>
            </relationships>
            <relationships>
                <autoTerminate>true</autoTerminate>
                <name>success</name>
            </relationships>
            <state>DISABLED</state>
            <style/>
            <type>org.apache.nifi.processors.hadoop.PutHDFS</type>
        </processors>
        <processors>
            <id>2956134c-dacb-3a3c-0000-000000000000</id>
            <parentGroupId>f6866b98-934e-3e5a-0000-000000000000</parentGroupId>
            <position>
                <x>731.925488796933</x>
                <y>31.032483106588046</y>
            </position>
            <bundle>
                <artifact>nifi-standard-nar</artifact>
                <group>org.apache.nifi</group>
                <version>1.5.0.3.1.1.0-35</version>
            </bundle>
            <config>
                <bulletinLevel>WARN</bulletinLevel>
                <comments></comments>
                <concurrentlySchedulableTaskCount>1</concurrentlySchedulableTaskCount>
                <descriptors>
                    <entry>
                        <key>Command Arguments</key>
                        <value>
                            <name>Command Arguments</name>
                        </value>
                    </entry>
                    <entry>
                        <key>Command Path</key>
                        <value>
                            <name>Command Path</name>
                        </value>
                    </entry>
                    <entry>
                        <key>Ignore STDIN</key>
                        <value>
                            <name>Ignore STDIN</name>
                        </value>
                    </entry>
                    <entry>
                        <key>Working Directory</key>
                        <value>
                            <name>Working Directory</name>
                        </value>
                    </entry>
                    <entry>
                        <key>Argument Delimiter</key>
                        <value>
                            <name>Argument Delimiter</name>
                        </value>
                    </entry>
                    <entry>
                        <key>Output Destination Attribute</key>
                        <value>
                            <name>Output Destination Attribute</name>
                        </value>
                    </entry>
                    <entry>
                        <key>Max Attribute Length</key>
                        <value>
                            <name>Max Attribute Length</name>
                        </value>
                    </entry>
                </descriptors>
                <executionNode>ALL</executionNode>
                <lossTolerant>false</lossTolerant>
                <penaltyDuration>30 sec</penaltyDuration>
                <properties>
                    <entry>
                        <key>Command Arguments</key>
                        <value>${filename};${absolute.path}</value>
                    </entry>
                    <entry>
                        <key>Command Path</key>
                        <value>/opt/hortonworks/nifi-1.5.0.3.1.1.0-35/bin/atlas_script.sh</value>
                    </entry>
                    <entry>
                        <key>Ignore STDIN</key>
                        <value>false</value>
                    </entry>
                    <entry>
                        <key>Working Directory</key>
                    </entry>
                    <entry>
                        <key>Argument Delimiter</key>
                        <value>;</value>
                    </entry>
                    <entry>
                        <key>Output Destination Attribute</key>
                    </entry>
                    <entry>
                        <key>Max Attribute Length</key>
                        <value>256</value>
                    </entry>
                </properties>
                <runDurationMillis>0</runDurationMillis>
                <schedulingPeriod>0 sec</schedulingPeriod>
                <schedulingStrategy>TIMER_DRIVEN</schedulingStrategy>
                <yieldDuration>1 sec</yieldDuration>
            </config>
            <name>AssignAtlasSourceTag</name>
            <relationships>
                <autoTerminate>true</autoTerminate>
                <name>nonzero status</name>
            </relationships>
            <relationships>
                <autoTerminate>true</autoTerminate>
                <name>original</name>
            </relationships>
            <relationships>
                <autoTerminate>true</autoTerminate>
                <name>output stream</name>
            </relationships>
            <state>STOPPED</state>
            <style/>
            <type>org.apache.nifi.processors.standard.ExecuteStreamCommand</type>
        </processors>
        <processors>
            <id>4c251ee7-918c-32d4-0000-000000000000</id>
            <parentGroupId>f6866b98-934e-3e5a-0000-000000000000</parentGroupId>
            <position>
                <x>733.3216583601024</x>
                <y>338.8049443860058</y>
            </position>
            <bundle>
                <artifact>nifi-standard-nar</artifact>
                <group>org.apache.nifi</group>
                <version>1.5.0.3.1.1.0-35</version>
            </bundle>
            <config>
                <bulletinLevel>WARN</bulletinLevel>
                <comments></comments>
                <concurrentlySchedulableTaskCount>1</concurrentlySchedulableTaskCount>
                <descriptors>
                    <entry>
                        <key>File to Fetch</key>
                        <value>
                            <name>File to Fetch</name>
                        </value>
                    </entry>
                    <entry>
                        <key>Completion Strategy</key>
                        <value>
                            <name>Completion Strategy</name>
                        </value>
                    </entry>
                    <entry>
                        <key>Move Destination Directory</key>
                        <value>
                            <name>Move Destination Directory</name>
                        </value>
                    </entry>
                    <entry>
                        <key>Move Conflict Strategy</key>
                        <value>
                            <name>Move Conflict Strategy</name>
                        </value>
                    </entry>
                    <entry>
                        <key>Log level when file not found</key>
                        <value>
                            <name>Log level when file not found</name>
                        </value>
                    </entry>
                    <entry>
                        <key>Log level when permission denied</key>
                        <value>
                            <name>Log level when permission denied</name>
                        </value>
                    </entry>
                </descriptors>
                <executionNode>ALL</executionNode>
                <lossTolerant>false</lossTolerant>
                <penaltyDuration>30 sec</penaltyDuration>
                <properties>
                    <entry>
                        <key>File to Fetch</key>
                        <value>${absolute.path}/${filename}</value>
                    </entry>
                    <entry>
                        <key>Completion Strategy</key>
                        <value>None</value>
                    </entry>
                    <entry>
                        <key>Move Destination Directory</key>
                    </entry>
                    <entry>
                        <key>Move Conflict Strategy</key>
                        <value>Rename</value>
                    </entry>
                    <entry>
                        <key>Log level when file not found</key>
                        <value>ERROR</value>
                    </entry>
                    <entry>
                        <key>Log level when permission denied</key>
                        <value>ERROR</value>
                    </entry>
                </properties>
                <runDurationMillis>0</runDurationMillis>
                <schedulingPeriod>0 sec</schedulingPeriod>
                <schedulingStrategy>TIMER_DRIVEN</schedulingStrategy>
                <yieldDuration>1 sec</yieldDuration>
            </config>
            <name>FetchFile</name>
            <relationships>
                <autoTerminate>false</autoTerminate>
                <name>failure</name>
            </relationships>
            <relationships>
                <autoTerminate>false</autoTerminate>
                <name>not.found</name>